* SPICE NETLIST
***************************************

.SUBCKT n12ll_mis_ckt D G S B
.ENDS
***************************************
.SUBCKT p12ll_mis_ckt D G S B
.ENDS
***************************************
.SUBCKT n18ll_mis_ckt D G S B
.ENDS
***************************************
.SUBCKT p18ll_mis_ckt D G S B
.ENDS
***************************************
.SUBCKT nt12ll_mis_ckt D G S B
.ENDS
***************************************
.SUBCKT nt18ll_mis_ckt D G S B
.ENDS
***************************************
.SUBCKT nhvt12ll_mis_ckt D G S B
.ENDS
***************************************
.SUBCKT phvt12ll_mis_ckt D G S B
.ENDS
***************************************
.SUBCKT nlvt12LL_mis_ckt D G S B
.ENDS
***************************************
.SUBCKT plvt12ll_mis_ckt D G S B
.ENDS
***************************************
.SUBCKT n12ll_ckt_rf DRN GATE SRC BULK
.ENDS
***************************************
.SUBCKT n12ll_ckt_rf_sdc DRN GATE SRC BULK
.ENDS
***************************************
.SUBCKT n18ll_ckt_rf DRN GATE SRC BULK
.ENDS
***************************************
.SUBCKT nlvt12ll_ckt_rf DRN GATE SRC BULK
.ENDS
***************************************
.SUBCKT nlvt12ll_ckt_rf_sdc DRN GATE SRC BULK
.ENDS
***************************************
.SUBCKT dnw12ll_ckt_rf DRN GATE SRC BULK
.ENDS
***************************************
.SUBCKT dnw12ll_ckt_rf_sdc DRN GATE SRC BULK
.ENDS
***************************************
.SUBCKT dnwlvt12ll_ckt_rf DRN GATE SRC BULK
.ENDS
***************************************
.SUBCKT dnwlvt12ll_ckt_rf_sdc DRN GATE SRC BULK
.ENDS
***************************************
.SUBCKT dnw18ll_ckt_rf DRN GATE SRC BULK
.ENDS
***************************************
.SUBCKT p12ll_ckt_rf DRN GATE SRC BULK
.ENDS
***************************************
.SUBCKT p12ll_ckt_rf_sdc DRN GATE SRC BULK
.ENDS
***************************************
.SUBCKT plvt12ll_ckt_rf DRN GATE SRC BULK
.ENDS
***************************************
.SUBCKT plvt12ll_ckt_rf_sdc DRN GATE SRC BULK
.ENDS
***************************************
.SUBCKT p18ll_ckt_rf DRN GATE SRC BULK
.ENDS
***************************************
.SUBCKT n12ll_ckt_rf_mis DRN GATE SRC BULK
.ENDS
***************************************
.SUBCKT n12ll_ckt_rf_sdc_mis DRN GATE SRC BULK
.ENDS
***************************************
.SUBCKT nlvt12ll_ckt_rf_mis DRN GATE SRC BULK
.ENDS
***************************************
.SUBCKT nlvt12ll_ckt_rf_sdc_mis DRN GATE SRC BULK
.ENDS
***************************************
.SUBCKT p12ll_ckt_rf_mis DRN GATE SRC BULK
.ENDS
***************************************
.SUBCKT p12ll_ckt_rf_sdc_mis DRN GATE SRC BULK
.ENDS
***************************************
.SUBCKT plvt12ll_ckt_rf_mis DRN GATE SRC BULK
.ENDS
***************************************
.SUBCKT plvt12ll_ckt_rf_sdc_mis DRN GATE SRC BULK
.ENDS
***************************************
.SUBCKT dnw12ll_ckt_rf_mis DRN GATE SRC BULK
.ENDS
***************************************
.SUBCKT dnw12ll_ckt_rf_sdc_mis DRN GATE SRC BULK
.ENDS
***************************************
.SUBCKT dnwlvt12ll_ckt_rf_mis DRN GATE SRC BULK
.ENDS
***************************************
.SUBCKT dnwlvt12ll_ckt_rf_sdc_mis DRN GATE SRC BULK
.ENDS
***************************************
.SUBCKT n18ll_ckt_rf_mis DRN GATE SRC BULK
.ENDS
***************************************
.SUBCKT p18ll_ckt_rf_mis DRN GATE SRC BULK
.ENDS
***************************************
.SUBCKT dnw18ll_ckt_rf_mis DRN GATE SRC BULK
.ENDS
***************************************
.SUBCKT dnw12ll_ckt D G S B
.ENDS
***************************************
.SUBCKT dnw18ll_ckt D G S B
.ENDS
***************************************
.SUBCKT dnwhvt12ll_ckt D G S B
.ENDS
***************************************
.SUBCKT dnwlvt12ll_ckt D G S B
.ENDS
***************************************
.SUBCKT n25ll_mis_ckt D G S B
.ENDS
***************************************
.SUBCKT p25ll_mis_ckt D G S B
.ENDS
***************************************
.SUBCKT nt25ll_mis_ckt D G S B
.ENDS
***************************************
.SUBCKT ntod33ll_mis_ckt D G S B
.ENDS
***************************************
.SUBCKT nod33ll_mis_ckt D G S B
.ENDS
***************************************
.SUBCKT pod33ll_mis_ckt D G S B
.ENDS
***************************************
.SUBCKT n25ll_ckt_rf DRN GATE SRC BULK
.ENDS
***************************************
.SUBCKT n25llod33_ckt_rf DRN GATE SRC BULK
.ENDS
***************************************
.SUBCKT n25llod33_ckt_rf_mis DRN GATE SRC BULK
.ENDS
***************************************
.SUBCKT n25ll_ckt_rf_sdc DRN GATE SRC BULK
.ENDS
***************************************
.SUBCKT n25ll_ckt_rf_sdc_mis DRN GATE SRC BULK
.ENDS
***************************************
.SUBCKT dnw25ll_ckt_rf DRN GATE SRC BULK
.ENDS
***************************************
.SUBCKT dnw25llod33_ckt_rf DRN GATE SRC BULK
.ENDS
***************************************
.SUBCKT dnw25llod33_ckt_rf_mis DRN GATE SRC BULK
.ENDS
***************************************
.SUBCKT dnw25ll_ckt_rf_sdc DRN GATE SRC BULK
.ENDS
***************************************
.SUBCKT dnw25ll_ckt_rf_sdc_mis DRN GATE SRC BULK
.ENDS
***************************************
.SUBCKT p25ll_ckt_rf DRN GATE SRC BULK
.ENDS
***************************************
.SUBCKT p25llod33_ckt_rf DRN GATE SRC BULK
.ENDS
***************************************
.SUBCKT p25llod33_ckt_rf_mis DRN GATE SRC BULK
.ENDS
***************************************
.SUBCKT p25ll_ckt_rf_sdc DRN GATE SRC BULK
.ENDS
***************************************
.SUBCKT p25ll_ckt_rf_sdc_mis DRN GATE SRC BULK
.ENDS
***************************************
.SUBCKT dnw25ll_ckt D G S B
.ENDS
***************************************
.SUBCKT dnwod33ll_ckt D G S B
.ENDS
***************************************
.SUBCKT dnwud18ll_ckt D G S B
.ENDS
***************************************
.SUBCKT n25ll_ckt_rf_mis DRN GATE SRC BULK
.ENDS
***************************************
.SUBCKT p25ll_ckt_rf_mis DRN GATE SRC BULK
.ENDS
***************************************
.SUBCKT dnw25ll_ckt_rf_mis DRN GATE SRC BULK
.ENDS
***************************************
.SUBCKT pvar12ll_ckt PLUS MINUS
.ENDS
***************************************
.SUBCKT pvar12ll_ckt_rf PLUS MINUS
.ENDS
***************************************
.SUBCKT pvar12ll_ckt_rf_3t PLUS MINUS B
.ENDS
***************************************
.SUBCKT pvar12lldnw_ckt_rf PLUS MINUS
.ENDS
***************************************
.SUBCKT pvar12lldnw_ckt_rf_3t PLUS MINUS B
.ENDS
***************************************
.SUBCKT pvar18ll_ckt PLUS MINUS
.ENDS
***************************************
.SUBCKT pvar18ll_ckt_rf PLUS MINUS
.ENDS
***************************************
.SUBCKT pvar18ll_ckt_rf_3t PLUS MINUS B
.ENDS
***************************************
.SUBCKT pvar18lldnw_ckt_rf PLUS MINUS
.ENDS
***************************************
.SUBCKT pvar18lldnw_ckt_rf_3t PLUS MINUS B
.ENDS
***************************************
.SUBCKT pvardio12ll_ckt_rf PLUS MINUS
.ENDS
***************************************
.SUBCKT pvardio18ll_ckt_rf PLUS MINUS
.ENDS
***************************************
.SUBCKT pvar25ll_ckt PLUS MINUS
.ENDS
***************************************
.SUBCKT pvar25ll_ckt_rf PLUS MINUS
.ENDS
***************************************
.SUBCKT pvar25ll_ckt_rf_3t PLUS MINUS B
.ENDS
***************************************
.SUBCKT pvar25lldnw_ckt_rf PLUS MINUS
.ENDS
***************************************
.SUBCKT pvar25lldnw_ckt_rf_3t PLUS MINUS B
.ENDS
***************************************
.SUBCKT pvardio25ll_ckt_rf PLUS MINUS
.ENDS
***************************************
.SUBCKT rndifsab_ckt_rf PLUS MINUS B
.ENDS
***************************************
.SUBCKT rpdifsab_ckt_rf PLUS MINUS B
.ENDS
***************************************
.SUBCKT rnposab_ckt_rf PLUS MINUS
.ENDS
***************************************
.SUBCKT rnposab_ckt_rf_3t PLUS MINUS B
.ENDS
***************************************
.SUBCKT rpposab_ckt_rf PLUS MINUS
.ENDS
***************************************
.SUBCKT rpposab_ckt_rf_3t PLUS MINUS B
.ENDS
***************************************
.SUBCKT rndif_ckt PLUS MINUS B
.ENDS
***************************************
.SUBCKT rpdif_ckt PLUS MINUS B
.ENDS
***************************************
.SUBCKT rnpo_ckt PLUS MINUS
.ENDS
***************************************
.SUBCKT rppo_ckt PLUS MINUS
.ENDS
***************************************
.SUBCKT rnwsti_ckt PLUS MINUS B
.ENDS
***************************************
.SUBCKT rnwaa_ckt PLUS MINUS B
.ENDS
***************************************
.SUBCKT rndifsab_ckt PLUS MINUS B
.ENDS
***************************************
.SUBCKT rpdifsab_ckt PLUS MINUS B
.ENDS
***************************************
.SUBCKT rnposab_ckt PLUS MINUS
.ENDS
***************************************
.SUBCKT rpposab_ckt PLUS MINUS
.ENDS
***************************************
.SUBCKT rnpo_3t_ckt PLUS MINUS B
.ENDS
***************************************
.SUBCKT rppo_3t_ckt PLUS MINUS B
.ENDS
***************************************
.SUBCKT rnposab_3t_ckt PLUS MINUS B
.ENDS
***************************************
.SUBCKT rpposab_3t_ckt PLUS MINUS B
.ENDS
***************************************
.SUBCKT rm1_ckt PLUS MINUS B
.ENDS
***************************************
.SUBCKT rm2_ckt PLUS MINUS B
.ENDS
***************************************
.SUBCKT rm3_ckt PLUS MINUS B
.ENDS
***************************************
.SUBCKT rm4_ckt PLUS MINUS B
.ENDS
***************************************
.SUBCKT ralpa_ckt PLUS MINUS B
.ENDS
***************************************
.SUBCKT rm5_ckt PLUS MINUS B
.ENDS
***************************************
.SUBCKT rm6_ckt PLUS MINUS B
.ENDS
***************************************
.SUBCKT rtm1_ckt PLUS MINUS B
.ENDS
***************************************
.SUBCKT rtm2_ckt PLUS MINUS B
.ENDS
***************************************
.SUBCKT mom13_ckt PLUS MINUS
.ENDS
***************************************
.SUBCKT mom13_rf PLUS MINUS
.ENDS
***************************************
.SUBCKT mom13_wops_rf PLUS MINUS
.ENDS
***************************************
.SUBCKT mom24_ckt PLUS MINUS
.ENDS
***************************************
.SUBCKT mom24_rf PLUS MINUS
.ENDS
***************************************
.SUBCKT mom24_wops_rf PLUS MINUS
.ENDS
***************************************
.SUBCKT mom14_ckt PLUS MINUS
.ENDS
***************************************
.SUBCKT mom14_rf PLUS MINUS
.ENDS
***************************************
.SUBCKT mom14_wops_rf PLUS MINUS
.ENDS
***************************************
.SUBCKT mom15_ckt PLUS MINUS
.ENDS
***************************************
.SUBCKT mom15_rf PLUS MINUS
.ENDS
***************************************
.SUBCKT mom15_wops_rf PLUS MINUS
.ENDS
***************************************
.SUBCKT mom25_ckt PLUS MINUS
.ENDS
***************************************
.SUBCKT mom25_rf PLUS MINUS
.ENDS
***************************************
.SUBCKT mom25_wops_rf PLUS MINUS
.ENDS
***************************************
.SUBCKT mom35_ckt PLUS MINUS
.ENDS
***************************************
.SUBCKT mom35_rf PLUS MINUS
.ENDS
***************************************
.SUBCKT mom35_wops_rf PLUS MINUS
.ENDS
***************************************
.SUBCKT mom16_ckt PLUS MINUS
.ENDS
***************************************
.SUBCKT mom16_rf PLUS MINUS
.ENDS
***************************************
.SUBCKT mom16_wops_rf PLUS MINUS
.ENDS
***************************************
.SUBCKT mom26_ckt PLUS MINUS
.ENDS
***************************************
.SUBCKT mom26_rf PLUS MINUS
.ENDS
***************************************
.SUBCKT mom26_wops_rf PLUS MINUS
.ENDS
***************************************
.SUBCKT mom36_ckt PLUS MINUS
.ENDS
***************************************
.SUBCKT mom36_rf PLUS MINUS
.ENDS
***************************************
.SUBCKT mom36_wops_rf PLUS MINUS
.ENDS
***************************************
.SUBCKT mom46_ckt PLUS MINUS
.ENDS
***************************************
.SUBCKT mom46_rf PLUS MINUS
.ENDS
***************************************
.SUBCKT mom46_wops_rf PLUS MINUS
.ENDS
***************************************
.SUBCKT mom13_3t_ckt PLUS MINUS B
.ENDS
***************************************
.SUBCKT mom14_3t_ckt PLUS MINUS B
.ENDS
***************************************
.SUBCKT mom24_3t_ckt PLUS MINUS B
.ENDS
***************************************
.SUBCKT mom15_3t_ckt PLUS MINUS B
.ENDS
***************************************
.SUBCKT mom25_3t_ckt PLUS MINUS B
.ENDS
***************************************
.SUBCKT mom35_3t_ckt PLUS MINUS B
.ENDS
***************************************
.SUBCKT mom16_3t_ckt PLUS MINUS B
.ENDS
***************************************
.SUBCKT mom26_3t_ckt PLUS MINUS B
.ENDS
***************************************
.SUBCKT mom36_3t_ckt PLUS MINUS B
.ENDS
***************************************
.SUBCKT mom46_3t_ckt PLUS MINUS B
.ENDS
***************************************
.SUBCKT mom13_wops_rf_3t PLUS MINUS B
.ENDS
***************************************
.SUBCKT mom24_wops_rf_3t PLUS MINUS B
.ENDS
***************************************
.SUBCKT mom14_wops_rf_3t PLUS MINUS B
.ENDS
***************************************
.SUBCKT mom15_wops_rf_3t PLUS MINUS B
.ENDS
***************************************
.SUBCKT mom25_wops_rf_3t PLUS MINUS B
.ENDS
***************************************
.SUBCKT mom35_wops_rf_3t PLUS MINUS B
.ENDS
***************************************
.SUBCKT mom16_wops_rf_3t PLUS MINUS B
.ENDS
***************************************
.SUBCKT mom26_wops_rf_3t PLUS MINUS B
.ENDS
***************************************
.SUBCKT mom36_wops_rf_3t PLUS MINUS B
.ENDS
***************************************
.SUBCKT mom46_wops_rf_3t PLUS MINUS B
.ENDS
***************************************
.SUBCKT mom13_rf_3t PLUS MINUS B
.ENDS
***************************************
.SUBCKT mom24_rf_3t PLUS MINUS B
.ENDS
***************************************
.SUBCKT mom14_rf_3t PLUS MINUS B
.ENDS
***************************************
.SUBCKT mom15_rf_3t PLUS MINUS B
.ENDS
***************************************
.SUBCKT mom25_rf_3t PLUS MINUS B
.ENDS
***************************************
.SUBCKT mom35_rf_3t PLUS MINUS B
.ENDS
***************************************
.SUBCKT mom16_rf_3t PLUS MINUS B
.ENDS
***************************************
.SUBCKT mom26_rf_3t PLUS MINUS B
.ENDS
***************************************
.SUBCKT mom36_rf_3t PLUS MINUS B
.ENDS
***************************************
.SUBCKT mom46_rf_3t PLUS MINUS B
.ENDS
***************************************
.SUBCKT nld50ll_ckt D G S B
.ENDS
***************************************
.SUBCKT pld50ll_ckt D G S B
.ENDS
***************************************
.SUBCKT nld50ll_mis_ckt D G S B
.ENDS
***************************************
.SUBCKT pld50ll_mis_ckt D G S B
.ENDS
***************************************
.SUBCKT nld50llod_ckt D G S B
.ENDS
***************************************
.SUBCKT pld50llod_ckt D G S B
.ENDS
***************************************
.SUBCKT nld50llod_mis_ckt D G S B
.ENDS
***************************************
.SUBCKT pld50llod_mis_ckt D G S B
.ENDS
***************************************
.SUBCKT 65smic_062swl_svt_strap_v0p0
** N=4 EP=0 IP=0 FDC=0
.ENDS
***************************************
.SUBCKT 65smic_062swl_svt_edge_v0p0 1 2 3 6 7 8
** N=8 EP=6 IP=0 FDC=3
M0 7 1 3 1 DNNPGSVT L=7.5e-08 W=1.25e-07 $X=965 $Y=90 $D=96
M1 6 1 1 1 DNNPDSVT L=6.5e-08 W=2.1e-07 $X=125 $Y=90 $D=95
M2 8 1 2 2 DNPLSVT L=6.5e-08 W=9.5e-08 $X=470 $Y=90 $D=97
.ENDS
***************************************
.SUBCKT 65smic_062swl_svt_dummycell_v0p0 1 2 3 4 5
** N=11 EP=5 IP=0 FDC=6
M0 3 1 8 2 DNNPGSVT L=7.5e-08 W=1.25e-07 $X=150 $Y=335 $D=96
M1 9 2 5 2 DNNPGSVT L=7.5e-08 W=1.25e-07 $X=965 $Y=90 $D=96
M2 8 9 2 2 DNNPDSVT L=6.5e-08 W=2.1e-07 $X=125 $Y=90 $D=95
M3 2 8 9 2 DNNPDSVT L=6.5e-08 W=2.1e-07 $X=905 $Y=345 $D=95
M4 8 9 4 4 DNPLSVT L=6.5e-08 W=9.5e-08 $X=470 $Y=90 $D=97
M5 4 8 9 4 DNPLSVT L=6.5e-08 W=9.5e-08 $X=675 $Y=345 $D=97
.ENDS
***************************************
.SUBCKT bitcell_dummy_lr_2B_620_VHSSP 1 2 3 4 5 6
** N=9 EP=6 IP=14 FDC=12
X0 1 2 3 4 9 65smic_062swl_svt_dummycell_v0p0 $T=0 500 1 0 $X=-125 $Y=-185
X1 5 2 6 4 9 65smic_062swl_svt_dummycell_v0p0 $T=0 500 0 0 $X=-125 $Y=315
.ENDS
***************************************
.SUBCKT ICV_1 1 2 3 4 5 6 7 8
** N=11 EP=8 IP=16 FDC=24
X0 2 1 4 5 3 11 bitcell_dummy_lr_2B_620_VHSSP $T=0 0 0 0 $X=-125 $Y=-185
X1 6 1 11 5 7 8 bitcell_dummy_lr_2B_620_VHSSP $T=0 1000 0 0 $X=-125 $Y=815
.ENDS
***************************************
.SUBCKT bitcell_dummy_lr_2A_620_VHSSP 1 2 3 4 5 6
** N=9 EP=6 IP=14 FDC=12
X0 1 2 9 3 4 65smic_062swl_svt_dummycell_v0p0 $T=0 0 0 0 $X=-125 $Y=-185
X1 5 2 9 3 6 65smic_062swl_svt_dummycell_v0p0 $T=0 1000 1 0 $X=-125 $Y=315
.ENDS
***************************************
.SUBCKT ICV_2 1 2 3 4 5 6 7 8
** N=11 EP=8 IP=16 FDC=24
X0 1 3 4 5 2 11 bitcell_dummy_lr_2A_620_VHSSP $T=0 0 0 0 $X=-125 $Y=-185
X1 6 3 4 11 7 8 bitcell_dummy_lr_2A_620_VHSSP $T=0 1000 0 0 $X=-125 $Y=815
.ENDS
***************************************
.SUBCKT bitcell64_dummy_620_VHSSP 1 2 3 4 5 6 7 8 9 10 11 12 13 14 15 16 17 18 19 20
+ 21 22 23 24 25 26 27 28 29 30 31 32 33 34 35 36 37 38 39 40
+ 41 42 43 44 45 46 47 48 49 50 51 52 53 54 55 56 57 58 59 60
+ 61 62 63 64 65 66 67
** N=100 EP=67 IP=212 FDC=408
X3 1 2 68 89 95 97 65smic_062swl_svt_edge_v0p0 $T=0 950 1 0 $X=-125 $Y=394
X4 1 2 69 90 96 98 65smic_062swl_svt_edge_v0p0 $T=0 17950 0 0 $X=-125 $Y=17765
X5 1 2 70 93 91 99 65smic_062swl_svt_edge_v0p0 $T=1240 19150 0 180 $X=-125 $Y=18594
X6 1 2 71 94 92 100 65smic_062swl_svt_edge_v0p0 $T=1240 35150 1 180 $X=-125 $Y=34965
X7 1 3 4 70 2 5 6 72 ICV_1 $T=0 19150 0 0 $X=-125 $Y=18965
X8 1 7 8 72 2 9 10 73 ICV_1 $T=0 21150 0 0 $X=-125 $Y=20965
X9 1 11 12 73 2 13 14 74 ICV_1 $T=0 23150 0 0 $X=-125 $Y=22965
X10 1 15 16 74 2 17 18 75 ICV_1 $T=0 25150 0 0 $X=-125 $Y=24965
X11 1 19 20 75 2 21 22 76 ICV_1 $T=0 27150 0 0 $X=-125 $Y=26965
X12 1 23 24 76 2 25 26 77 ICV_1 $T=0 29150 0 0 $X=-125 $Y=28965
X13 1 27 28 77 2 29 30 78 ICV_1 $T=0 31150 0 0 $X=-125 $Y=30965
X14 1 31 32 78 2 33 34 71 ICV_1 $T=0 33150 0 0 $X=-125 $Y=32965
X15 35 1 2 79 36 69 bitcell_dummy_lr_2A_620_VHSSP $T=0 16950 0 0 $X=-125 $Y=16765
X16 1 37 1 2 68 38 39 80 ICV_2 $T=0 950 0 0 $X=-125 $Y=765
X17 40 41 1 2 80 42 43 81 ICV_2 $T=0 2950 0 0 $X=-125 $Y=2765
X18 44 45 1 2 81 46 47 82 ICV_2 $T=0 4950 0 0 $X=-125 $Y=4765
X19 48 49 1 2 82 50 51 83 ICV_2 $T=0 6950 0 0 $X=-125 $Y=6765
X20 52 53 1 2 83 54 55 84 ICV_2 $T=0 8950 0 0 $X=-125 $Y=8765
X21 56 57 1 2 84 58 59 85 ICV_2 $T=0 10950 0 0 $X=-125 $Y=10765
X22 60 61 1 2 85 62 63 86 ICV_2 $T=0 12950 0 0 $X=-125 $Y=12765
X23 64 65 1 2 86 66 67 79 ICV_2 $T=0 14950 0 0 $X=-125 $Y=14765
.ENDS
***************************************
.SUBCKT YMUX8_CAP_LEFT_620
** N=2 EP=0 IP=0 FDC=0
.ENDS
***************************************
.SUBCKT Y8_DOWN_POWER_BW_620
** N=37 EP=0 IP=0 FDC=0
*.CALIBRE ISOLATED NETS: VSS VDD DATA DOUT BWEN
.ENDS
***************************************
.SUBCKT smic_062_strap_x2_VHSSP
** N=6 EP=0 IP=8 FDC=0
.ENDS
***************************************
.SUBCKT smic_062_edge_x2b_VHSSP 1 2 3 4 7 8 9 10 11 12
** N=12 EP=10 IP=16 FDC=6
X0 1 2 3 7 8 11 65smic_062swl_svt_edge_v0p0 $T=1240 0 1 180 $X=-125 $Y=-185
X1 1 2 4 9 10 12 65smic_062swl_svt_edge_v0p0 $T=1240 0 0 0 $X=1115 $Y=-185
.ENDS
***************************************
.SUBCKT 65smic_062swl_svt_bitcell_v0p0 1 2 3 4 5
** N=9 EP=5 IP=0 FDC=6
M0 3 1 6 2 DNNPGSVT L=7.5e-08 W=1.25e-07 $X=150 $Y=335 $D=96
M1 7 1 5 2 DNNPGSVT L=7.5e-08 W=1.25e-07 $X=965 $Y=90 $D=96
M2 6 7 2 2 DNNPDSVT L=6.5e-08 W=2.1e-07 $X=125 $Y=90 $D=95
M3 2 6 7 2 DNNPDSVT L=6.5e-08 W=2.1e-07 $X=905 $Y=345 $D=95
M4 6 7 4 4 DNPLSVT L=6.5e-08 W=9.5e-08 $X=470 $Y=90 $D=97
M5 4 6 7 4 DNPLSVT L=6.5e-08 W=9.5e-08 $X=675 $Y=345 $D=97
.ENDS
***************************************
.SUBCKT smic_062_bitcellx4b_VHSSP 1 2 3 4 5 6 7 8
** N=8 EP=8 IP=20 FDC=24
X0 1 2 3 4 5 65smic_062swl_svt_bitcell_v0p0 $T=1240 0 1 180 $X=-125 $Y=-185
X1 6 2 3 4 5 65smic_062swl_svt_bitcell_v0p0 $T=1240 1000 0 180 $X=-125 $Y=315
X2 1 2 7 4 8 65smic_062swl_svt_bitcell_v0p0 $T=1240 0 0 0 $X=1115 $Y=-185
X3 6 2 7 4 8 65smic_062swl_svt_bitcell_v0p0 $T=1240 1000 1 0 $X=1115 $Y=315
.ENDS
***************************************
.SUBCKT ICV_3 1 2 3 4 5 6 7 8 9 10
** N=10 EP=10 IP=16 FDC=48
X0 2 1 9 5 4 3 10 6 smic_062_bitcellx4b_VHSSP $T=0 0 0 0 $X=-125 $Y=-185
X1 7 1 9 5 4 8 10 6 smic_062_bitcellx4b_VHSSP $T=0 1000 0 0 $X=-125 $Y=815
.ENDS
***************************************
.SUBCKT ICV_4 1 2 3 4 5 6 7 8 9 10 11 12 13 14
** N=14 EP=14 IP=20 FDC=96
X0 1 2 3 6 7 8 4 5 13 14 ICV_3 $T=0 0 0 0 $X=-125 $Y=-185
X1 1 9 10 6 7 8 11 12 13 14 ICV_3 $T=0 2000 0 0 $X=-125 $Y=1815
.ENDS
***************************************
.SUBCKT smic_062_edge_x2a_VHSSP 1 2 3 4 7 8 9 10 11 12
** N=12 EP=10 IP=16 FDC=6
X0 1 2 3 7 8 11 65smic_062swl_svt_edge_v0p0 $T=0 0 0 0 $X=-125 $Y=-185
X1 1 2 4 9 10 12 65smic_062swl_svt_edge_v0p0 $T=2480 0 1 180 $X=1115 $Y=-185
.ENDS
***************************************
.SUBCKT smic_062_bitcellx4a_VHSSP 1 2 3 4 5 6 7 8
** N=8 EP=8 IP=20 FDC=24
X0 1 2 3 4 5 65smic_062swl_svt_bitcell_v0p0 $T=0 0 0 0 $X=-125 $Y=-185
X1 6 2 3 4 5 65smic_062swl_svt_bitcell_v0p0 $T=0 1000 1 0 $X=-125 $Y=315
X2 1 2 7 4 8 65smic_062swl_svt_bitcell_v0p0 $T=2480 0 1 180 $X=1115 $Y=-185
X3 6 2 7 4 8 65smic_062swl_svt_bitcell_v0p0 $T=2480 1000 0 180 $X=1115 $Y=315
.ENDS
***************************************
.SUBCKT ICV_5 1 2 3 4 5 6 7 8 9 10
** N=10 EP=10 IP=16 FDC=48
X0 1 3 9 4 5 2 10 6 smic_062_bitcellx4a_VHSSP $T=0 0 0 0 $X=-125 $Y=-185
X1 7 3 9 4 5 8 10 6 smic_062_bitcellx4a_VHSSP $T=0 1000 0 0 $X=-125 $Y=815
.ENDS
***************************************
.SUBCKT ICV_6 1 2 3 4 5 6 7 8 9 10 11 12 13 14
** N=14 EP=14 IP=20 FDC=96
X0 2 3 1 6 7 8 4 5 13 14 ICV_5 $T=0 0 0 0 $X=-125 $Y=-185
X1 9 10 1 6 7 8 11 12 13 14 ICV_5 $T=0 2000 0 0 $X=-125 $Y=1815
.ENDS
***************************************
.SUBCKT a_x64y2_ab_620_VHSSP 1 2 3 4 5 6 7 8 9 10 11 12 13 14 15 16 17 18 19 20
+ 21 22 23 24 25 26 27 28 29 30 31 32 33 34 35 36 37 38 39 40
+ 41 42 43 44 45 46 47 48 49 50 51 52 53 54 55 56 57 58 59 60
+ 61 62 63 64 65 66 67 68 69 70 71
** N=95 EP=71 IP=186 FDC=816
X3 1 3 2 4 76 74 80 86 90 92 smic_062_edge_x2b_VHSSP $T=0 19150 1 0 $X=-125 $Y=18594
X4 1 3 2 4 77 75 81 87 91 93 smic_062_edge_x2b_VHSSP $T=0 35150 0 0 $X=-125 $Y=34965
X5 1 5 6 7 8 2 3 4 9 10 11 12 37 38 ICV_4 $T=0 19150 0 0 $X=-125 $Y=18965
X6 1 13 14 15 16 2 3 4 17 18 19 20 37 38 ICV_4 $T=0 23150 0 0 $X=-125 $Y=22965
X7 1 21 22 23 24 2 3 4 25 26 27 28 37 38 ICV_4 $T=0 27150 0 0 $X=-125 $Y=26965
X8 1 29 30 31 32 2 3 4 33 34 35 36 37 38 ICV_4 $T=0 31150 0 0 $X=-125 $Y=30965
X9 1 3 37 38 72 78 84 82 88 94 smic_062_edge_x2a_VHSSP $T=0 950 1 0 $X=-125 $Y=394
X10 1 3 37 38 73 79 85 83 89 95 smic_062_edge_x2a_VHSSP $T=0 17950 0 0 $X=-125 $Y=17765
X11 39 1 2 3 37 40 4 38 smic_062_bitcellx4a_VHSSP $T=0 16950 0 0 $X=-125 $Y=16765
X12 1 1 41 42 43 3 37 38 44 45 46 47 2 4 ICV_6 $T=0 950 0 0 $X=-125 $Y=765
X13 1 48 49 50 51 3 37 38 52 53 54 55 2 4 ICV_6 $T=0 4950 0 0 $X=-125 $Y=4765
X14 1 56 57 58 59 3 37 38 60 61 62 63 2 4 ICV_6 $T=0 8950 0 0 $X=-125 $Y=8765
X15 1 64 65 66 67 3 37 38 68 69 70 71 2 4 ICV_6 $T=0 12950 0 0 $X=-125 $Y=12765
.ENDS
***************************************
.SUBCKT Y8_X64_1_DOWN_BW_620_VHSSP 1 2 6 7 8 9 10 11 12 13 14 15 16 17 18 19 20 21 22 23
+ 24 25 26 27 28 29 30 31 32 33 34 35 36 37 38 39 40 41 42 43
+ 44 45 46 47 48 49 50 51 52 53 54 55 56 57 58 59 60 61 62 63
+ 64 65 66 67 68 69 70 71 72 73 74 75 76 77 78 79 80 81 82 83
+ 84 85
** N=85 EP=82 IP=289 FDC=3264
X1 1 70 2 73 38 39 40 41 42 43 44 45 46 47 48 49 50 51 52 53
+ 54 55 56 57 58 59 60 61 62 63 64 65 66 67 68 69 71 72 36 37
+ 1 6 7 8 9 10 11 12 13 14 15 16 17 18 19 20 21 22 23 24
+ 25 26 27 28 29 30 31 32 33 34 35
+ a_x64y2_ab_620_VHSSP $T=0 0 0 0 $X=-125 $Y=-285
X2 1 74 2 77 38 39 40 41 42 43 44 45 46 47 48 49 50 51 52 53
+ 54 55 56 57 58 59 60 61 62 63 64 65 66 67 68 69 75 76 36 37
+ 1 6 7 8 9 10 11 12 13 14 15 16 17 18 19 20 21 22 23 24
+ 25 26 27 28 29 30 31 32 33 34 35
+ a_x64y2_ab_620_VHSSP $T=2480 0 0 0 $X=2355 $Y=-285
X3 1 78 2 81 38 39 40 41 42 43 44 45 46 47 48 49 50 51 52 53
+ 54 55 56 57 58 59 60 61 62 63 64 65 66 67 68 69 79 80 36 37
+ 1 6 7 8 9 10 11 12 13 14 15 16 17 18 19 20 21 22 23 24
+ 25 26 27 28 29 30 31 32 33 34 35
+ a_x64y2_ab_620_VHSSP $T=4960 0 0 0 $X=4835 $Y=-285
X4 1 82 2 85 38 39 40 41 42 43 44 45 46 47 48 49 50 51 52 53
+ 54 55 56 57 58 59 60 61 62 63 64 65 66 67 68 69 83 84 36 37
+ 1 6 7 8 9 10 11 12 13 14 15 16 17 18 19 20 21 22 23 24
+ 25 26 27 28 29 30 31 32 33 34 35
+ a_x64y2_ab_620_VHSSP $T=7440 0 0 0 $X=7315 $Y=-285
.ENDS
***************************************
.SUBCKT Y8_TOP_POWER_620
** N=34 EP=0 IP=0 FDC=0
*.CALIBRE ISOLATED NETS: VSS VDD
.ENDS
***************************************
.SUBCKT Y8_X64_1_UP_620_VHSSP 1 2 3 4 5 6 7 8 9 10 11 12 13 14 15 16 17 18 19 20
+ 21 22 23 24 25 26 27 28 29 30 31 32 33 34 35 36 37 38 39 40
+ 41 42 43 44 45 46 47 48 49 50 51 52 53 54 55 56 57 58 59 60
+ 61 62 63 64 65 66 67 68 69 70 71 72 73 74 75 76 77 78 79 80
+ 81 82 83
** N=86 EP=83 IP=286 FDC=3264
X0 1 68 67 71 35 36 37 38 39 40 41 42 43 44 45 46 47 48 49 50
+ 51 52 53 54 55 56 57 58 59 60 61 62 63 64 65 66 69 70 33 34
+ 2 3 4 5 6 7 8 9 10 11 12 13 14 15 16 17 18 19 20 21
+ 22 23 24 25 26 27 28 29 30 31 32
+ a_x64y2_ab_620_VHSSP $T=0 0 0 0 $X=-125 $Y=-285
X1 1 72 67 75 35 36 37 38 39 40 41 42 43 44 45 46 47 48 49 50
+ 51 52 53 54 55 56 57 58 59 60 61 62 63 64 65 66 73 74 33 34
+ 2 3 4 5 6 7 8 9 10 11 12 13 14 15 16 17 18 19 20 21
+ 22 23 24 25 26 27 28 29 30 31 32
+ a_x64y2_ab_620_VHSSP $T=2480 0 0 0 $X=2355 $Y=-285
X2 1 76 67 79 35 36 37 38 39 40 41 42 43 44 45 46 47 48 49 50
+ 51 52 53 54 55 56 57 58 59 60 61 62 63 64 65 66 77 78 33 34
+ 2 3 4 5 6 7 8 9 10 11 12 13 14 15 16 17 18 19 20 21
+ 22 23 24 25 26 27 28 29 30 31 32
+ a_x64y2_ab_620_VHSSP $T=4960 0 0 0 $X=4835 $Y=-285
X3 1 80 67 83 35 36 37 38 39 40 41 42 43 44 45 46 47 48 49 50
+ 51 52 53 54 55 56 57 58 59 60 61 62 63 64 65 66 81 82 33 34
+ 2 3 4 5 6 7 8 9 10 11 12 13 14 15 16 17 18 19 20 21
+ 22 23 24 25 26 27 28 29 30 31 32
+ a_x64y2_ab_620_VHSSP $T=7440 0 0 0 $X=7315 $Y=-285
.ENDS
***************************************
.SUBCKT YMX8SAWR_BW_620 VSS VDD LBL[0] UBL[0] LBLX[0] UBLX[0] YX[1] YX[0] DATA LBLX[1] UBLX[1] LBL[1] UBL[1] YX[2] LBL[2] UBL[2] WE LBLX[2] UBLX[2] CLK
+ CLKX LBLX[3] UBLX[3] LBL[3] UBL[3] YX[3] YX[5] DOUT LBL[4] UBL[4] AXS LBLX[4] UBLX[4] AS LBLX[5] UBLX[5] LBL[5] UBL[5] LBL[6] UBL[6]
+ YX[6] LBLX[6] UBLX[6] SACK1 YX[4] LBLX[7] UBLX[7] LBL[7] UBL[7] SACK4 BWEN YX[7]
** N=227 EP=52 IP=0 FDC=377
M0 LBL[0] 95 61 VSS n12ll L=6e-08 W=7.5e-07 $X=395 $Y=2800 $D=0
M1 61 95 LBL[0] VSS n12ll L=6e-08 W=7.5e-07 $X=395 $Y=3080 $D=0
M2 LBLX[0] 72 61 VSS n12ll L=6e-08 W=7.5e-07 $X=395 $Y=3360 $D=0
M3 61 72 LBLX[0] VSS n12ll L=6e-08 W=7.5e-07 $X=395 $Y=3640 $D=0
M4 UBLX[0] 72 62 VSS n12ll L=6e-08 W=7.5e-07 $X=395 $Y=29670 $D=0
M5 62 72 UBLX[0] VSS n12ll L=6e-08 W=7.5e-07 $X=395 $Y=29950 $D=0
M6 UBL[0] 95 62 VSS n12ll L=6e-08 W=7.5e-07 $X=395 $Y=30230 $D=0
M7 62 95 UBL[0] VSS n12ll L=6e-08 W=7.5e-07 $X=395 $Y=30510 $D=0
M8 VSS 63 57 VSS n12ll L=6e-08 W=8e-07 $X=445 $Y=5385 $D=0
M9 VSS 64 58 VSS n12ll L=6e-08 W=8e-07 $X=445 $Y=27185 $D=0
M10 VSS 57 61 VSS n12ll L=6e-08 W=1.52e-06 $X=490 $Y=4590 $D=0
M11 68 74 VSS VSS n12ll L=6e-08 W=1.52e-06 $X=490 $Y=4860 $D=0
M12 VSS 75 69 VSS n12ll L=6e-08 W=1.52e-06 $X=490 $Y=28450 $D=0
M13 62 58 VSS VSS n12ll L=6e-08 W=1.52e-06 $X=490 $Y=28720 $D=0
M14 185 60 VSS VSS n12ll L=6e-08 W=8e-07 $X=725 $Y=5385 $D=0
M15 186 60 VSS VSS n12ll L=6e-08 W=8e-07 $X=725 $Y=27185 $D=0
M16 63 65 185 VSS n12ll L=6e-08 W=8e-07 $X=925 $Y=5385 $D=0
M17 64 66 186 VSS n12ll L=6e-08 W=8e-07 $X=925 $Y=27185 $D=0
M18 LBL[1] 95 68 VSS n12ll L=6e-08 W=7.5e-07 $X=1335 $Y=2800 $D=0
M19 68 95 LBL[1] VSS n12ll L=6e-08 W=7.5e-07 $X=1335 $Y=3080 $D=0
M20 LBLX[1] 72 68 VSS n12ll L=6e-08 W=7.5e-07 $X=1335 $Y=3360 $D=0
M21 68 72 LBLX[1] VSS n12ll L=6e-08 W=7.5e-07 $X=1335 $Y=3640 $D=0
M22 UBLX[1] 72 69 VSS n12ll L=6e-08 W=7.5e-07 $X=1335 $Y=29670 $D=0
M23 69 72 UBLX[1] VSS n12ll L=6e-08 W=7.5e-07 $X=1335 $Y=29950 $D=0
M24 UBL[1] 95 69 VSS n12ll L=6e-08 W=7.5e-07 $X=1335 $Y=30230 $D=0
M25 69 95 UBL[1] VSS n12ll L=6e-08 W=7.5e-07 $X=1335 $Y=30510 $D=0
M26 VSS VSS DATA VSS n12ll L=6e-08 W=2e-07 $X=1410 $Y=16190 $D=0
M27 VSS DATA 67 VSS n12ll L=6e-08 W=4e-07 $X=1445 $Y=12440 $D=0
M28 187 65 70 VSS n12ll L=6e-08 W=8e-07 $X=1495 $Y=5385 $D=0
M29 188 66 71 VSS n12ll L=6e-08 W=8e-07 $X=1495 $Y=27185 $D=0
M30 VSS YX[0] 60 VSS n12ll L=6e-08 W=4e-07 $X=1675 $Y=22905 $D=0
M31 59 YX[1] VSS VSS n12ll L=6e-08 W=4e-07 $X=1685 $Y=10365 $D=0
M32 VSS 59 187 VSS n12ll L=6e-08 W=8e-07 $X=1695 $Y=5385 $D=0
M33 VSS 59 188 VSS n12ll L=6e-08 W=8e-07 $X=1695 $Y=27185 $D=0
M34 72 77 VSS VSS n12ll L=6e-08 W=1e-06 $X=1790 $Y=18090 $D=0
M35 76 67 VSS VSS n12ll L=3e-07 W=4e-07 $X=1835 $Y=12440 $D=0
M36 73 91 VSS VSS n12ll L=6e-08 W=4e-07 $X=1860 $Y=16110 $D=0
M37 74 70 VSS VSS n12ll L=6e-08 W=8e-07 $X=1975 $Y=5385 $D=0
M38 75 71 VSS VSS n12ll L=6e-08 W=8e-07 $X=1975 $Y=27185 $D=0
M39 VSS 77 72 VSS n12ll L=6e-08 W=1e-06 $X=2080 $Y=18090 $D=0
M40 189 73 VSS VSS n12ll L=6e-08 W=1e-06 $X=2415 $Y=18090 $D=0
M41 VSS 83 80 VSS n12ll L=6e-08 W=5e-07 $X=2510 $Y=16135 $D=0
M42 77 80 189 VSS n12ll L=6e-08 W=1e-06 $X=2635 $Y=18090 $D=0
M43 190 WE VSS VSS n12ll L=6e-08 W=4e-07 $X=2800 $Y=16135 $D=0
M44 VSS 76 84 VSS n12ll L=2e-07 W=4e-07 $X=2845 $Y=12440 $D=0
M45 LBL[2] 95 85 VSS n12ll L=6e-08 W=7.5e-07 $X=2875 $Y=2800 $D=0
M46 85 95 LBL[2] VSS n12ll L=6e-08 W=7.5e-07 $X=2875 $Y=3080 $D=0
M47 LBLX[2] 72 85 VSS n12ll L=6e-08 W=7.5e-07 $X=2875 $Y=3360 $D=0
M48 85 72 LBLX[2] VSS n12ll L=6e-08 W=7.5e-07 $X=2875 $Y=3640 $D=0